Version 4
SHEET 1 880 680
WIRE 272 128 128 128
WIRE 400 128 272 128
WIRE 656 128 400 128
WIRE 400 160 400 128
WIRE 656 160 656 128
WIRE 128 288 128 128
WIRE 272 288 272 128
WIRE 352 304 320 304
WIRE 400 320 400 240
WIRE 432 320 400 320
WIRE 496 320 432 320
WIRE 656 320 656 240
WIRE 656 320 576 320
WIRE 400 400 400 320
WIRE 656 400 656 320
WIRE 128 544 128 368
WIRE 272 544 272 368
WIRE 272 544 128 544
WIRE 352 544 352 304
WIRE 352 544 272 544
WIRE 400 544 400 480
WIRE 400 544 352 544
WIRE 656 544 656 480
WIRE 656 544 400 544
WIRE 128 560 128 544
FLAG 128 560 0
FLAG 432 320 a
FLAG 320 352 a
DATAFLAG 400 384 "$"
SYMBOL res 384 144 R0
SYMATTR InstName R1
SYMATTR Value 6
SYMBOL res 640 144 R0
SYMATTR InstName R2
SYMATTR Value 10
SYMBOL res 384 384 R0
SYMATTR InstName R3
SYMATTR Value 6
SYMBOL res 640 384 R0
SYMATTR InstName R4
SYMATTR Value 2
SYMBOL voltage 128 272 R0
SYMATTR InstName V1
SYMATTR Value 12
SYMBOL g 272 384 R180
SYMATTR InstName G1
SYMATTR Value 2
SYMBOL current 496 320 R270
WINDOW 0 32 40 VTop 2
WINDOW 3 -32 40 VBottom 2
SYMATTR InstName I1
SYMATTR Value 1
TEXT 168 568 Left 2 !.op
